<?xml version="1.0" encoding="UTF-8"?>

<!-- generated on 2026-04-17 16:52:17 by Eclipse SUMO netedit Version 1.23.1
<neteditConfiguration xmlns:xsi="http://www.w3.org/2001/XMLSchema-instance" xsi:noNamespaceSchemaLocation="http://sumo.dlr.de/xsd/neteditConfiguration.xsd">

    <input>
        <sumo-net-file value="C:\Users\josej\OneDrive\Escritorio\Joaco\TDG\Contro de trafico\interseccion\nueva interseccion.net.xml"/>
    </input>

    <output>
        <output-file value="C:\Users\josej\OneDrive\Escritorio\Joaco\TDG\Contro de trafico\interseccion\nueva interseccion.net.xml"/>
    </output>

    <processing>
        <geometry.min-radius.fix.railways value="false"/>
        <geometry.avoid-overlap value="false"/>
        <geometry.max-grade.fix value="false"/>
        <offset.disable-normalization value="true"/>
        <lefthand value="0"/>
    </processing>

    <junctions>
        <no-turnarounds value="true"/>
        <junctions.corner-detail value="5"/>
        <junctions.limit-turn-speed value="5.50"/>
        <rectangular-lane-cut value="0"/>
    </junctions>

    <pedestrian>
        <walkingareas value="0"/>
    </pedestrian>

</neteditConfiguration>
-->

<net version="1.20" junctionCornerDetail="5" limitTurnSpeed="5.50" avoidOverlap="0" xmlns:xsi="http://www.w3.org/2001/XMLSchema-instance" xsi:noNamespaceSchemaLocation="http://sumo.dlr.de/xsd/net_file.xsd">

    <location netOffset="0.00,0.00" convBoundary="-200.00,-200.00,500.00,200.00" origBoundary="-10000000000.00,-10000000000.00,10000000000.00,10000000000.00" projParameter="!"/>

    <edge id=":J17_0" function="internal">
        <lane id=":J17_0_0" index="0" speed="6.51" length="9.03" shape="-4.80,10.40 -5.15,7.95 -6.20,6.20 -7.95,5.15 -10.40,4.80"/>
    </edge>
    <edge id=":J17_1" function="internal">
        <lane id=":J17_1_0" index="0" speed="13.89" length="20.80" shape="-4.80,10.40 -4.80,-10.40"/>
        <lane id=":J17_1_1" index="1" speed="13.89" length="20.80" shape="-1.60,10.40 -1.60,-10.40"/>
    </edge>
    <edge id=":J17_3" function="internal">
        <lane id=":J17_3_0" index="0" speed="9.26" length="19.35" shape="-1.60,10.40 -0.85,5.15 1.40,1.40 5.15,-0.85 10.40,-1.60"/>
    </edge>
    <edge id=":J17_4" function="internal">
        <lane id=":J17_4_0" index="0" speed="6.51" length="9.03" shape="10.40,4.80 7.95,5.15 6.20,6.20 5.15,7.95 4.80,10.40"/>
    </edge>
    <edge id=":J17_5" function="internal">
        <lane id=":J17_5_0" index="0" speed="13.89" length="20.80" shape="10.40,4.80 -10.40,4.80"/>
        <lane id=":J17_5_1" index="1" speed="13.89" length="20.80" shape="10.40,1.60 -10.40,1.60"/>
    </edge>
    <edge id=":J17_7" function="internal">
        <lane id=":J17_7_0" index="0" speed="9.26" length="19.35" shape="10.40,1.60 5.15,0.85 1.40,-1.40 -0.85,-5.15 -1.60,-10.40"/>
    </edge>
    <edge id=":J17_8" function="internal">
        <lane id=":J17_8_0" index="0" speed="6.51" length="9.03" shape="4.80,-10.40 5.15,-7.95 6.20,-6.20 7.95,-5.15 10.40,-4.80"/>
    </edge>
    <edge id=":J17_9" function="internal">
        <lane id=":J17_9_0" index="0" speed="13.89" length="20.80" shape="4.80,-10.40 4.80,10.40"/>
        <lane id=":J17_9_1" index="1" speed="13.89" length="20.80" shape="1.60,-10.40 1.60,10.40"/>
    </edge>
    <edge id=":J17_11" function="internal">
        <lane id=":J17_11_0" index="0" speed="9.26" length="19.35" shape="1.60,-10.40 0.85,-5.15 -1.40,-1.40 -5.15,0.85 -10.40,1.60"/>
    </edge>
    <edge id=":J17_12" function="internal">
        <lane id=":J17_12_0" index="0" speed="6.51" length="9.03" shape="-10.40,-4.80 -7.95,-5.15 -6.20,-6.20 -5.15,-7.95 -4.80,-10.40"/>
    </edge>
    <edge id=":J17_13" function="internal">
        <lane id=":J17_13_0" index="0" speed="13.89" length="20.80" shape="-10.40,-4.80 10.40,-4.80"/>
        <lane id=":J17_13_1" index="1" speed="13.89" length="20.80" shape="-10.40,-1.60 10.40,-1.60"/>
    </edge>
    <edge id=":J17_15" function="internal">
        <lane id=":J17_15_0" index="0" speed="9.26" length="19.35" shape="-10.40,-1.60 -5.15,-0.85 -1.40,1.40 0.85,5.15 1.60,10.40"/>
    </edge>
    <edge id=":J18_0" function="internal">
        <lane id=":J18_0_0" index="0" speed="6.51" length="9.03" shape="295.20,10.40 294.85,7.95 293.80,6.20 292.05,5.15 289.60,4.80"/>
    </edge>
    <edge id=":J18_1" function="internal">
        <lane id=":J18_1_0" index="0" speed="13.89" length="20.80" shape="295.20,10.40 295.20,-10.40"/>
        <lane id=":J18_1_1" index="1" speed="13.89" length="20.80" shape="298.40,10.40 298.40,-10.40"/>
    </edge>
    <edge id=":J18_3" function="internal">
        <lane id=":J18_3_0" index="0" speed="9.02" length="18.33" shape="298.40,10.40 299.48,6.14 302.28,2.28 306.14,-0.52 310.40,-1.60"/>
    </edge>
    <edge id=":J18_4" function="internal">
        <lane id=":J18_4_0" index="0" speed="6.51" length="9.03" shape="310.40,4.80 307.95,5.15 306.20,6.20 305.15,7.95 304.80,10.40"/>
    </edge>
    <edge id=":J18_5" function="internal">
        <lane id=":J18_5_0" index="0" speed="13.89" length="20.80" shape="310.40,4.80 289.60,4.80"/>
        <lane id=":J18_5_1" index="1" speed="13.89" length="20.80" shape="310.40,1.60 289.60,1.60"/>
    </edge>
    <edge id=":J18_7" function="internal">
        <lane id=":J18_7_0" index="0" speed="9.02" length="18.33" shape="310.40,1.60 306.14,0.52 302.28,-2.28 299.48,-6.14 298.40,-10.40"/>
    </edge>
    <edge id=":J18_8" function="internal">
        <lane id=":J18_8_0" index="0" speed="6.51" length="9.03" shape="304.80,-10.40 305.15,-7.95 306.20,-6.20 307.95,-5.15 310.40,-4.80"/>
    </edge>
    <edge id=":J18_9" function="internal">
        <lane id=":J18_9_0" index="0" speed="13.89" length="20.80" shape="304.80,-10.40 304.80,10.40"/>
        <lane id=":J18_9_1" index="1" speed="13.89" length="20.80" shape="301.60,-10.40 301.60,10.40"/>
    </edge>
    <edge id=":J18_11" function="internal">
        <lane id=":J18_11_0" index="0" speed="9.02" length="18.33" shape="301.60,-10.40 300.52,-6.14 297.72,-2.28 293.86,0.52 289.60,1.60"/>
    </edge>
    <edge id=":J18_12" function="internal">
        <lane id=":J18_12_0" index="0" speed="6.51" length="9.03" shape="289.60,-4.80 292.05,-5.15 293.80,-6.20 294.85,-7.95 295.20,-10.40"/>
    </edge>
    <edge id=":J18_13" function="internal">
        <lane id=":J18_13_0" index="0" speed="13.89" length="20.80" shape="289.60,-4.80 310.40,-4.80"/>
        <lane id=":J18_13_1" index="1" speed="13.89" length="20.80" shape="289.60,-1.60 310.40,-1.60"/>
    </edge>
    <edge id=":J18_15" function="internal">
        <lane id=":J18_15_0" index="0" speed="9.02" length="18.33" shape="289.60,-1.60 293.86,-0.52 297.72,2.28 300.52,6.14 301.60,10.40"/>
    </edge>

    <edge id="-E1" from="J17" to="J16" priority="-1">
        <lane id="-E1_0" index="0" speed="13.89" length="189.60" shape="-10.40,4.80 -200.00,4.80"/>
        <lane id="-E1_1" index="1" speed="13.89" length="189.60" shape="-10.40,1.60 -200.00,1.60"/>
    </edge>
    <edge id="-E2" from="J18" to="J17" priority="-1">
        <lane id="-E2_0" index="0" speed="13.89" length="279.20" shape="289.60,4.80 10.40,4.80"/>
        <lane id="-E2_1" index="1" speed="13.89" length="279.20" shape="289.60,1.60 10.40,1.60"/>
    </edge>
    <edge id="-E3" from="J19" to="J18" priority="-1">
        <lane id="-E3_0" index="0" speed="13.89" length="189.60" shape="500.00,4.80 310.40,4.80"/>
        <lane id="-E3_1" index="1" speed="13.89" length="189.60" shape="500.00,1.60 310.40,1.60"/>
    </edge>
    <edge id="-E4" from="J23" to="J17" priority="-1">
        <lane id="-E4_0" index="0" speed="13.89" length="189.60" shape="-4.80,200.00 -4.80,10.40"/>
        <lane id="-E4_1" index="1" speed="13.89" length="189.60" shape="-1.60,200.00 -1.60,10.40"/>
    </edge>
    <edge id="-E5" from="J17" to="J22" priority="-1">
        <lane id="-E5_0" index="0" speed="13.89" length="189.60" shape="-4.80,-10.40 -4.80,-200.00"/>
        <lane id="-E5_1" index="1" speed="13.89" length="189.60" shape="-1.60,-10.40 -1.60,-200.00"/>
    </edge>
    <edge id="-E6" from="J20" to="J18" priority="-1">
        <lane id="-E6_0" index="0" speed="13.89" length="189.60" shape="295.20,200.00 295.20,10.40"/>
        <lane id="-E6_1" index="1" speed="13.89" length="189.60" shape="298.40,200.00 298.40,10.40"/>
    </edge>
    <edge id="-E7" from="J18" to="J21" priority="-1">
        <lane id="-E7_0" index="0" speed="13.89" length="189.60" shape="295.20,-10.40 295.20,-200.00"/>
        <lane id="-E7_1" index="1" speed="13.89" length="189.60" shape="298.40,-10.40 298.40,-200.00"/>
    </edge>
    <edge id="E1" from="J16" to="J17" priority="-1">
        <lane id="E1_0" index="0" speed="13.89" length="189.60" shape="-200.00,-4.80 -10.40,-4.80"/>
        <lane id="E1_1" index="1" speed="13.89" length="189.60" shape="-200.00,-1.60 -10.40,-1.60"/>
    </edge>
    <edge id="E2" from="J17" to="J18" priority="-1">
        <lane id="E2_0" index="0" speed="13.89" length="279.20" shape="10.40,-4.80 289.60,-4.80"/>
        <lane id="E2_1" index="1" speed="13.89" length="279.20" shape="10.40,-1.60 289.60,-1.60"/>
    </edge>
    <edge id="E3" from="J18" to="J19" priority="-1" spreadType="roadCenter">
        <lane id="E3_0" index="0" speed="13.89" length="189.60" shape="310.40,-4.80 500.00,-4.80"/>
        <lane id="E3_1" index="1" speed="13.89" length="189.60" shape="310.40,-1.60 500.00,-1.60"/>
    </edge>
    <edge id="E4" from="J17" to="J23" priority="-1">
        <lane id="E4_0" index="0" speed="13.89" length="189.60" shape="4.80,10.40 4.80,200.00"/>
        <lane id="E4_1" index="1" speed="13.89" length="189.60" shape="1.60,10.40 1.60,200.00"/>
    </edge>
    <edge id="E5" from="J22" to="J17" priority="-1">
        <lane id="E5_0" index="0" speed="13.89" length="189.60" shape="4.80,-200.00 4.80,-10.40"/>
        <lane id="E5_1" index="1" speed="13.89" length="189.60" shape="1.60,-200.00 1.60,-10.40"/>
    </edge>
    <edge id="E6" from="J18" to="J20" priority="-1">
        <lane id="E6_0" index="0" speed="13.89" length="189.60" shape="304.80,10.40 304.80,200.00"/>
        <lane id="E6_1" index="1" speed="13.89" length="189.60" shape="301.60,10.40 301.60,200.00"/>
    </edge>
    <edge id="E7" from="J21" to="J18" priority="-1">
        <lane id="E7_0" index="0" speed="13.89" length="189.60" shape="304.80,-200.00 304.80,-10.40"/>
        <lane id="E7_1" index="1" speed="13.89" length="189.60" shape="301.60,-200.00 301.60,-10.40"/>
    </edge>

    <tlLogic id="J17" type="static" programID="0" offset="0">
        <phase duration="42" state="GGGGGrrrGrrrrrrr"/>
        <phase duration="3"  state="yyyyyrrryrrrrrrr"/>
        <phase duration="42" state="rrrrGGGGGrrrGrrr"/>
        <phase duration="3"  state="rrrryyyyyrrryrrr"/>
        <phase duration="42" state="GrrrrrrrGGGGGrrr"/>
        <phase duration="3"  state="yrrrrrrryyyyyrrr"/>
        <phase duration="42" state="GrrrGrrrrrrrGGGG"/>
        <phase duration="3"  state="yrrryrrrrrrryyyy"/>
    </tlLogic>
    <tlLogic id="J18" type="static" programID="0" offset="0">
        <phase duration="42" state="GGGGGrrrGrrrrrrr"/>
        <phase duration="3"  state="yyyyyrrryrrrrrrr"/>
        <phase duration="42" state="rrrrGGGGGrrrGrrr"/>
        <phase duration="3"  state="rrrryyyyyrrryrrr"/>
        <phase duration="42" state="GrrrrrrrGGGGGrrr"/>
        <phase duration="3"  state="yrrrrrrryyyyyrrr"/>
        <phase duration="42" state="GrrrGrrrrrrrGGGG"/>
        <phase duration="3"  state="yrrryrrrrrrryyyy"/>
    </tlLogic>

    <junction id="J16" type="dead_end" x="-200.00" y="0.00" incLanes="-E1_0 -E1_1" intLanes="" shape="-200.00,0.00 -200.00,6.40 -200.00,0.00"/>
    <junction id="J17" type="traffic_light" x="0.00" y="0.00" incLanes="-E4_0 -E4_1 -E2_0 -E2_1 E5_0 E5_1 E1_0 E1_1" intLanes=":J17_0_0 :J17_1_0 :J17_1_1 :J17_3_0 :J17_4_0 :J17_5_0 :J17_5_1 :J17_7_0 :J17_8_0 :J17_9_0 :J17_9_1 :J17_11_0 :J17_12_0 :J17_13_0 :J17_13_1 :J17_15_0" shape="-6.40,10.40 6.40,10.40 6.84,8.18 7.40,7.40 8.18,6.84 9.18,6.51 10.40,6.40 10.40,-6.40 8.18,-6.84 7.40,-7.40 6.84,-8.18 6.51,-9.18 6.40,-10.40 -6.40,-10.40 -6.84,-8.18 -7.40,-7.40 -8.18,-6.84 -9.18,-6.51 -10.40,-6.40 -10.40,6.40 -8.18,6.84 -7.40,7.40 -6.84,8.18 -6.51,9.18">
        <request index="0"  response="0000000000000000" foes="0000000001100000" cont="0"/>
        <request index="1"  response="0000000000000000" foes="1111100011100000" cont="0"/>
        <request index="2"  response="0000000000000000" foes="1111100011100000" cont="0"/>
        <request index="3"  response="0000011000000000" foes="1110011011100000" cont="0"/>
        <request index="4"  response="0000011000000000" foes="0000011000000000" cont="0"/>
        <request index="5"  response="0000111000001111" foes="1000111000001111" cont="0"/>
        <request index="6"  response="0000111000001111" foes="1000111000001111" cont="0"/>
        <request index="7"  response="0110111000001110" foes="0110111000001110" cont="0"/>
        <request index="8"  response="0000000000000000" foes="0110000000000000" cont="0"/>
        <request index="9"  response="0000000000000000" foes="1110000011111000" cont="0"/>
        <request index="10" response="0000000000000000" foes="1110000011111000" cont="0"/>
        <request index="11" response="0000000000000110" foes="1110000011100110" cont="0"/>
        <request index="12" response="0000000000000110" foes="0000000000000110" cont="0"/>
        <request index="13" response="0000111100001110" foes="0000111110001110" cont="0"/>
        <request index="14" response="0000111100001110" foes="0000111110001110" cont="0"/>
        <request index="15" response="0000111001101110" foes="0000111001101110" cont="0"/>
    </junction>
    <junction id="J18" type="traffic_light_unregulated" x="300.00" y="0.00" incLanes="-E6_0 -E6_1 -E3_0 -E3_1 E7_0 E7_1 E2_0 E2_1" intLanes=":J18_0_0 :J18_1_0 :J18_1_1 :J18_3_0 :J18_4_0 :J18_5_0 :J18_5_1 :J18_7_0 :J18_8_0 :J18_9_0 :J18_9_1 :J18_11_0 :J18_12_0 :J18_13_0 :J18_13_1 :J18_15_0" shape="293.60,10.40 306.40,10.40 306.84,8.18 307.40,7.40 308.18,6.84 309.18,6.51 310.40,6.40 310.40,-6.40 308.18,-6.84 307.40,-7.40 306.84,-8.18 306.51,-9.18 306.40,-10.40 293.60,-10.40 293.16,-8.18 292.60,-7.40 291.82,-6.84 290.82,-6.51 289.60,-6.40 289.60,6.40 291.82,6.84 292.60,7.40 293.16,8.18 293.49,9.18" fringe="outer"/>
    <junction id="J19" type="dead_end" x="500.00" y="0.00" incLanes="E3_0 E3_1" intLanes="" shape="500.00,0.00 500.00,-6.40 500.00,0.00"/>
    <junction id="J20" type="dead_end" x="300.00" y="200.00" incLanes="E6_0 E6_1" intLanes="" shape="300.00,200.00 306.40,200.00 300.00,200.00"/>
    <junction id="J21" type="dead_end" x="300.00" y="-200.00" incLanes="-E7_0 -E7_1" intLanes="" shape="300.00,-200.00 293.60,-200.00 300.00,-200.00"/>
    <junction id="J22" type="dead_end" x="0.00" y="-200.00" incLanes="-E5_0 -E5_1" intLanes="" shape="0.00,-200.00 -6.40,-200.00 0.00,-200.00"/>
    <junction id="J23" type="dead_end" x="0.00" y="200.00" incLanes="E4_0 E4_1" intLanes="" shape="0.00,200.00 6.40,200.00 0.00,200.00"/>

    <connection from="-E2" to="E4" fromLane="0" toLane="0" via=":J17_4_0" tl="J17" linkIndex="4" dir="r" state="o"/>
    <connection from="-E2" to="-E1" fromLane="0" toLane="0" via=":J17_5_0" tl="J17" linkIndex="5" dir="s" state="o"/>
    <connection from="-E2" to="-E1" fromLane="1" toLane="1" via=":J17_5_1" tl="J17" linkIndex="6" dir="s" state="o"/>
    <connection from="-E2" to="-E5" fromLane="1" toLane="1" via=":J17_7_0" tl="J17" linkIndex="7" dir="l" state="o"/>
    <connection from="-E3" to="E6" fromLane="0" toLane="0" via=":J18_4_0" tl="J18" linkIndex="4" dir="r" state="O"/>
    <connection from="-E3" to="-E2" fromLane="0" toLane="0" via=":J18_5_0" tl="J18" linkIndex="5" dir="s" state="O"/>
    <connection from="-E3" to="-E2" fromLane="1" toLane="1" via=":J18_5_1" tl="J18" linkIndex="6" dir="s" state="O"/>
    <connection from="-E3" to="-E7" fromLane="1" toLane="1" via=":J18_7_0" tl="J18" linkIndex="7" dir="l" state="O"/>
    <connection from="-E4" to="-E1" fromLane="0" toLane="0" via=":J17_0_0" tl="J17" linkIndex="0" dir="r" state="O"/>
    <connection from="-E4" to="-E5" fromLane="0" toLane="0" via=":J17_1_0" tl="J17" linkIndex="1" dir="s" state="O"/>
    <connection from="-E4" to="-E5" fromLane="1" toLane="1" via=":J17_1_1" tl="J17" linkIndex="2" dir="s" state="O"/>
    <connection from="-E4" to="E2" fromLane="1" toLane="1" via=":J17_3_0" tl="J17" linkIndex="3" dir="l" state="o"/>
    <connection from="-E6" to="-E2" fromLane="0" toLane="0" via=":J18_0_0" tl="J18" linkIndex="0" dir="r" state="O"/>
    <connection from="-E6" to="-E7" fromLane="0" toLane="0" via=":J18_1_0" tl="J18" linkIndex="1" dir="s" state="O"/>
    <connection from="-E6" to="-E7" fromLane="1" toLane="1" via=":J18_1_1" tl="J18" linkIndex="2" dir="s" state="O"/>
    <connection from="-E6" to="E3" fromLane="1" toLane="1" via=":J18_3_0" tl="J18" linkIndex="3" dir="l" state="O"/>
    <connection from="E1" to="-E5" fromLane="0" toLane="0" via=":J17_12_0" tl="J17" linkIndex="12" dir="r" state="o"/>
    <connection from="E1" to="E2" fromLane="0" toLane="0" via=":J17_13_0" tl="J17" linkIndex="13" dir="s" state="o"/>
    <connection from="E1" to="E2" fromLane="1" toLane="1" via=":J17_13_1" tl="J17" linkIndex="14" dir="s" state="o"/>
    <connection from="E1" to="E4" fromLane="1" toLane="1" via=":J17_15_0" tl="J17" linkIndex="15" dir="l" state="o"/>
    <connection from="E2" to="-E7" fromLane="0" toLane="0" via=":J18_12_0" tl="J18" linkIndex="12" dir="r" state="O"/>
    <connection from="E2" to="E3" fromLane="0" toLane="0" via=":J18_13_0" tl="J18" linkIndex="13" dir="s" state="O"/>
    <connection from="E2" to="E3" fromLane="1" toLane="1" via=":J18_13_1" tl="J18" linkIndex="14" dir="s" state="O"/>
    <connection from="E2" to="E6" fromLane="1" toLane="1" via=":J18_15_0" tl="J18" linkIndex="15" dir="l" state="O"/>
    <connection from="E5" to="E2" fromLane="0" toLane="0" via=":J17_8_0" tl="J17" linkIndex="8" dir="r" state="O"/>
    <connection from="E5" to="E4" fromLane="0" toLane="0" via=":J17_9_0" tl="J17" linkIndex="9" dir="s" state="O"/>
    <connection from="E5" to="E4" fromLane="1" toLane="1" via=":J17_9_1" tl="J17" linkIndex="10" dir="s" state="O"/>
    <connection from="E5" to="-E1" fromLane="1" toLane="1" via=":J17_11_0" tl="J17" linkIndex="11" dir="l" state="o"/>
    <connection from="E7" to="E3" fromLane="0" toLane="0" via=":J18_8_0" tl="J18" linkIndex="8" dir="r" state="O"/>
    <connection from="E7" to="E6" fromLane="0" toLane="0" via=":J18_9_0" tl="J18" linkIndex="9" dir="s" state="O"/>
    <connection from="E7" to="E6" fromLane="1" toLane="1" via=":J18_9_1" tl="J18" linkIndex="10" dir="s" state="O"/>
    <connection from="E7" to="-E2" fromLane="1" toLane="1" via=":J18_11_0" tl="J18" linkIndex="11" dir="l" state="O"/>

    <connection from=":J17_0" to="-E1" fromLane="0" toLane="0" dir="r" state="M"/>
    <connection from=":J17_1" to="-E5" fromLane="0" toLane="0" dir="s" state="M"/>
    <connection from=":J17_1" to="-E5" fromLane="1" toLane="1" dir="s" state="M"/>
    <connection from=":J17_3" to="E2" fromLane="0" toLane="1" dir="l" state="M"/>
    <connection from=":J17_4" to="E4" fromLane="0" toLane="0" dir="r" state="M"/>
    <connection from=":J17_5" to="-E1" fromLane="0" toLane="0" dir="s" state="M"/>
    <connection from=":J17_5" to="-E1" fromLane="1" toLane="1" dir="s" state="M"/>
    <connection from=":J17_7" to="-E5" fromLane="0" toLane="1" dir="l" state="M"/>
    <connection from=":J17_8" to="E2" fromLane="0" toLane="0" dir="r" state="M"/>
    <connection from=":J17_9" to="E4" fromLane="0" toLane="0" dir="s" state="M"/>
    <connection from=":J17_9" to="E4" fromLane="1" toLane="1" dir="s" state="M"/>
    <connection from=":J17_11" to="-E1" fromLane="0" toLane="1" dir="l" state="M"/>
    <connection from=":J17_12" to="-E5" fromLane="0" toLane="0" dir="r" state="M"/>
    <connection from=":J17_13" to="E2" fromLane="0" toLane="0" dir="s" state="M"/>
    <connection from=":J17_13" to="E2" fromLane="1" toLane="1" dir="s" state="M"/>
    <connection from=":J17_15" to="E4" fromLane="0" toLane="1" dir="l" state="M"/>
    <connection from=":J18_0" to="-E2" fromLane="0" toLane="0" dir="r" state="M"/>
    <connection from=":J18_1" to="-E7" fromLane="0" toLane="0" dir="s" state="M"/>
    <connection from=":J18_1" to="-E7" fromLane="1" toLane="1" dir="s" state="M"/>
    <connection from=":J18_3" to="E3" fromLane="0" toLane="1" dir="l" state="M"/>
    <connection from=":J18_4" to="E6" fromLane="0" toLane="0" dir="r" state="M"/>
    <connection from=":J18_5" to="-E2" fromLane="0" toLane="0" dir="s" state="M"/>
    <connection from=":J18_5" to="-E2" fromLane="1" toLane="1" dir="s" state="M"/>
    <connection from=":J18_7" to="-E7" fromLane="0" toLane="1" dir="l" state="M"/>
    <connection from=":J18_8" to="E3" fromLane="0" toLane="0" dir="r" state="M"/>
    <connection from=":J18_9" to="E6" fromLane="0" toLane="0" dir="s" state="M"/>
    <connection from=":J18_9" to="E6" fromLane="1" toLane="1" dir="s" state="M"/>
    <connection from=":J18_11" to="-E2" fromLane="0" toLane="1" dir="l" state="M"/>
    <connection from=":J18_12" to="-E7" fromLane="0" toLane="0" dir="r" state="M"/>
    <connection from=":J18_13" to="E3" fromLane="0" toLane="0" dir="s" state="M"/>
    <connection from=":J18_13" to="E3" fromLane="1" toLane="1" dir="s" state="M"/>
    <connection from=":J18_15" to="E6" fromLane="0" toLane="1" dir="l" state="M"/>

</net>
