<?xml version="1.0" encoding="UTF-8"?>

<!-- generated on 2026-04-21 10:56:10.906974 by randomTrips.py v1_23_1+0000-676720d13f6
<configuration>
    <net-file value="interseccion\nueva_interseccion.net.xml"/>
    <output-trip-file value="interseccion\nueva_interseccion.rou.xml"/>
    <validate value="True"/>
    <end value="10000.0"/>
    <period value="2.0"/>
    <binomial value="2"/>
</configuration>
-->

<routes xmlns:xsi="http://www.w3.org/2001/XMLSchema-instance" xsi:noNamespaceSchemaLocation="http://sumo.dlr.de/xsd/routes_file.xsd">
    <trip id="0" depart="4.00" from="-E6" to="-E1"/>
    <trip id="1" depart="6.00" from="E2" to="E2"/>
    <trip id="2" depart="7.00" from="E1" to="E4"/>
    <trip id="3" depart="9.00" from="E5" to="E3"/>
    <trip id="4" depart="14.00" from="E7" to="-E5"/>
    <trip id="5" depart="20.00" from="-E2" to="E4"/>
    <trip id="6" depart="20.00" from="-E3" to="-E5"/>
    <trip id="7" depart="22.00" from="-E3" to="-E1"/>
    <trip id="8" depart="25.00" from="-E4" to="E6"/>
    <trip id="9" depart="27.00" from="-E2" to="-E5"/>
    <trip id="10" depart="29.00" from="E7" to="E6"/>
    <trip id="11" depart="37.00" from="E1" to="-E5"/>
    <trip id="12" depart="40.00" from="-E2" to="-E1"/>
    <trip id="13" depart="41.00" from="E2" to="E3"/>
    <trip id="14" depart="41.00" from="-E6" to="-E7"/>
    <trip id="15" depart="42.00" from="E7" to="E4"/>
    <trip id="16" depart="43.00" from="E5" to="E2"/>
    <trip id="17" depart="43.00" from="-E4" to="-E1"/>
    <trip id="18" depart="47.00" from="E7" to="E6"/>
    <trip id="19" depart="47.00" from="-E6" to="-E1"/>
    <trip id="20" depart="51.00" from="E1" to="E3"/>
    <trip id="21" depart="51.00" from="-E4" to="E6"/>
    <trip id="22" depart="52.00" from="-E3" to="-E5"/>
    <trip id="23" depart="53.00" from="-E3" to="-E1"/>
    <trip id="24" depart="54.00" from="E7" to="E4"/>
    <trip id="25" depart="57.00" from="-E3" to="E6"/>
    <trip id="26" depart="57.00" from="-E6" to="-E5"/>
    <trip id="27" depart="59.00" from="-E3" to="-E7"/>
    <trip id="28" depart="60.00" from="E7" to="E4"/>
    <trip id="29" depart="61.00" from="-E6" to="-E2"/>
    <trip id="30" depart="61.00" from="-E4" to="E6"/>
    <trip id="31" depart="63.00" from="E1" to="E2"/>
    <trip id="32" depart="71.00" from="E7" to="-E1"/>
    <trip id="33" depart="72.00" from="E1" to="E3"/>
    <trip id="34" depart="80.00" from="E1" to="E2"/>
    <trip id="35" depart="82.00" from="-E3" to="-E5"/>
    <trip id="36" depart="84.00" from="E5" to="E3"/>
    <trip id="37" depart="86.00" from="-E2" to="-E1"/>
    <trip id="38" depart="87.00" from="-E6" to="-E5"/>
    <trip id="39" depart="93.00" from="E5" to="E3"/>
    <trip id="40" depart="95.00" from="-E3" to="-E5"/>
    <trip id="41" depart="98.00" from="-E3" to="-E1"/>
    <trip id="42" depart="99.00" from="E7" to="E4"/>
    <trip id="43" depart="102.00" from="E5" to="E4"/>
    <trip id="44" depart="103.00" from="E5" to="-E7"/>
    <trip id="45" depart="106.00" from="-E2" to="-E2"/>
    <trip id="46" depart="107.00" from="E7" to="-E2"/>
    <trip id="47" depart="110.00" from="-E6" to="E3"/>
    <trip id="48" depart="118.00" from="-E4" to="-E7"/>
    <trip id="49" depart="119.00" from="-E3" to="-E1"/>
    <trip id="50" depart="120.00" from="-E6" to="E4"/>
    <trip id="51" depart="124.00" from="-E6" to="E3"/>
    <trip id="52" depart="129.00" from="E2" to="-E7"/>
    <trip id="53" depart="130.00" from="-E6" to="-E2"/>
    <trip id="54" depart="140.00" from="-E3" to="E4"/>
    <trip id="55" depart="140.00" from="-E4" to="-E5"/>
    <trip id="56" depart="143.00" from="-E3" to="-E7"/>
    <trip id="57" depart="144.00" from="-E4" to="E3"/>
    <trip id="58" depart="146.00" from="-E6" to="-E2"/>
    <trip id="59" depart="147.00" from="-E6" to="-E2"/>
    <trip id="60" depart="149.00" from="-E2" to="-E2"/>
    <trip id="61" depart="152.00" from="E2" to="E2"/>
    <trip id="62" depart="153.00" from="E1" to="E3"/>
    <trip id="63" depart="154.00" from="E5" to="E6"/>
    <trip id="64" depart="156.00" from="-E2" to="-E5"/>
    <trip id="65" depart="157.00" from="E2" to="E3"/>
    <trip id="66" depart="157.00" from="E5" to="E4"/>
    <trip id="67" depart="159.00" from="E7" to="E4"/>
    <trip id="68" depart="160.00" from="E7" to="E3"/>
    <trip id="69" depart="161.00" from="E7" to="-E2"/>
    <trip id="70" depart="162.00" from="E7" to="-E1"/>
    <trip id="71" depart="163.00" from="-E3" to="-E1"/>
    <trip id="72" depart="166.00" from="-E3" to="-E7"/>
    <trip id="73" depart="167.00" from="-E3" to="-E2"/>
    <trip id="74" depart="167.00" from="E5" to="-E7"/>
    <trip id="75" depart="169.00" from="E1" to="-E5"/>
    <trip id="76" depart="170.00" from="E5" to="E2"/>
    <trip id="77" depart="171.00" from="E1" to="-E7"/>
    <trip id="78" depart="174.00" from="-E3" to="-E1"/>
    <trip id="79" depart="176.00" from="E2" to="E3"/>
    <trip id="80" depart="177.00" from="-E3" to="-E5"/>
    <trip id="81" depart="179.00" from="E2" to="E3"/>
    <trip id="82" depart="181.00" from="E7" to="E4"/>
    <trip id="83" depart="182.00" from="E5" to="-E7"/>
    <trip id="84" depart="183.00" from="E1" to="E3"/>
    <trip id="85" depart="186.00" from="-E4" to="-E5"/>
    <trip id="86" depart="188.00" from="E1" to="E6"/>
    <trip id="87" depart="189.00" from="E7" to="E6"/>
    <trip id="88" depart="191.00" from="E5" to="-E7"/>
    <trip id="89" depart="193.00" from="E1" to="-E7"/>
    <trip id="90" depart="194.00" from="E1" to="-E5"/>
    <trip id="91" depart="201.00" from="E2" to="E2"/>
    <trip id="92" depart="201.00" from="E5" to="-E1"/>
    <trip id="93" depart="203.00" from="E1" to="E2"/>
    <trip id="94" depart="204.00" from="E1" to="E2"/>
    <trip id="95" depart="205.00" from="-E2" to="E4"/>
    <trip id="96" depart="206.00" from="E7" to="-E2"/>
    <trip id="97" depart="207.00" from="E5" to="E6"/>
    <trip id="98" depart="207.00" from="-E6" to="-E5"/>
    <trip id="99" depart="208.00" from="-E6" to="-E7"/>
    <trip id="100" depart="210.00" from="E1" to="E2"/>
    <trip id="101" depart="213.00" from="E1" to="-E7"/>
    <trip id="102" depart="213.00" from="-E4" to="E3"/>
    <trip id="103" depart="214.00" from="E7" to="-E2"/>
    <trip id="104" depart="216.00" from="E1" to="-E7"/>
    <trip id="105" depart="217.00" from="-E3" to="-E1"/>
    <trip id="106" depart="218.00" from="-E2" to="E4"/>
    <trip id="107" depart="220.00" from="E7" to="-E5"/>
    <trip id="108" depart="221.00" from="E7" to="-E2"/>
    <trip id="109" depart="224.00" from="-E6" to="-E1"/>
    <trip id="110" depart="228.00" from="-E4" to="-E7"/>
    <trip id="111" depart="232.00" from="E2" to="E2"/>
    <trip id="112" depart="233.00" from="-E2" to="E4"/>
    <trip id="113" depart="235.00" from="-E3" to="E4"/>
    <trip id="114" depart="237.00" from="E7" to="-E1"/>
    <trip id="115" depart="239.00" from="-E3" to="-E5"/>
    <trip id="116" depart="245.00" from="E1" to="E6"/>
    <trip id="117" depart="245.00" from="E5" to="E4"/>
    <trip id="118" depart="247.00" from="-E6" to="-E7"/>
    <trip id="119" depart="249.00" from="-E4" to="E3"/>
    <trip id="120" depart="250.00" from="-E6" to="-E2"/>
    <trip id="121" depart="252.00" from="-E6" to="E3"/>
    <trip id="122" depart="255.00" from="E7" to="-E1"/>
    <trip id="123" depart="256.00" from="-E4" to="E3"/>
    <trip id="124" depart="257.00" from="E7" to="E4"/>
    <trip id="125" depart="257.00" from="E5" to="E2"/>
    <trip id="126" depart="258.00" from="-E6" to="-E5"/>
    <trip id="127" depart="259.00" from="-E2" to="-E2"/>
    <trip id="128" depart="259.00" from="-E6" to="-E5"/>
    <trip id="129" depart="261.00" from="-E4" to="-E5"/>
    <trip id="130" depart="263.00" from="E5" to="-E1"/>
    <trip id="131" depart="265.00" from="E7" to="E4"/>
    <trip id="132" depart="267.00" from="-E2" to="-E5"/>
    <trip id="133" depart="268.00" from="-E3" to="-E2"/>
    <trip id="134" depart="271.00" from="E5" to="-E7"/>
    <trip id="135" depart="273.00" from="E1" to="-E5"/>
    <trip id="136" depart="275.00" from="E5" to="-E1"/>
    <trip id="137" depart="278.00" from="-E2" to="-E1"/>
    <trip id="138" depart="280.00" from="-E3" to="-E7"/>
    <trip id="139" depart="282.00" from="-E4" to="-E5"/>
    <trip id="140" depart="282.00" from="-E4" to="E6"/>
    <trip id="141" depart="287.00" from="-E3" to="E6"/>
    <trip id="142" depart="287.00" from="-E3" to="-E1"/>
    <trip id="143" depart="288.00" from="E5" to="E4"/>
    <trip id="144" depart="289.00" from="-E6" to="-E2"/>
    <trip id="145" depart="290.00" from="-E6" to="-E7"/>
    <trip id="146" depart="291.00" from="-E6" to="-E5"/>
    <trip id="147" depart="294.00" from="-E4" to="E3"/>
    <trip id="148" depart="295.00" from="E5" to="E4"/>
    <trip id="149" depart="298.00" from="-E6" to="-E5"/>
    <trip id="150" depart="298.00" from="E7" to="-E5"/>
    <trip id="151" depart="301.00" from="E7" to="E4"/>
    <trip id="152" depart="301.00" from="E2" to="-E7"/>
    <trip id="153" depart="302.00" from="-E2" to="-E5"/>
    <trip id="154" depart="306.00" from="-E4" to="-E5"/>
    <trip id="155" depart="308.00" from="-E6" to="E4"/>
    <trip id="156" depart="309.00" from="-E6" to="E3"/>
    <trip id="157" depart="318.00" from="E7" to="-E1"/>
    <trip id="158" depart="319.00" from="E1" to="E4"/>
    <trip id="159" depart="322.00" from="E5" to="-E7"/>
    <trip id="160" depart="323.00" from="E5" to="-E7"/>
    <trip id="161" depart="324.00" from="-E3" to="-E1"/>
    <trip id="162" depart="328.00" from="-E4" to="E6"/>
    <trip id="163" depart="329.00" from="E1" to="E4"/>
    <trip id="164" depart="330.00" from="E1" to="E4"/>
    <trip id="165" depart="331.00" from="-E2" to="E4"/>
    <trip id="166" depart="332.00" from="E5" to="-E7"/>
    <trip id="167" depart="332.00" from="E1" to="E6"/>
    <trip id="168" depart="333.00" from="-E3" to="-E2"/>
    <trip id="169" depart="335.00" from="E1" to="-E5"/>
    <trip id="170" depart="338.00" from="-E4" to="E6"/>
    <trip id="171" depart="339.00" from="E7" to="E3"/>
    <trip id="172" depart="341.00" from="-E2" to="-E2"/>
    <trip id="173" depart="343.00" from="-E4" to="E3"/>
    <trip id="174" depart="344.00" from="-E4" to="E2"/>
    <trip id="175" depart="348.00" from="E7" to="-E2"/>
    <trip id="176" depart="350.00" from="E1" to="-E5"/>
    <trip id="177" depart="352.00" from="-E4" to="E2"/>
    <trip id="178" depart="355.00" from="-E2" to="-E5"/>
    <trip id="179" depart="355.00" from="-E4" to="-E1"/>
    <trip id="180" depart="356.00" from="E1" to="E2"/>
    <trip id="181" depart="362.00" from="-E3" to="-E5"/>
    <trip id="182" depart="363.00" from="E7" to="E3"/>
    <trip id="183" depart="365.00" from="E2" to="E2"/>
    <trip id="184" depart="366.00" from="-E2" to="-E5"/>
    <trip id="185" depart="367.00" from="E2" to="-E7"/>
    <trip id="186" depart="368.00" from="-E3" to="-E2"/>
    <trip id="187" depart="368.00" from="E7" to="-E5"/>
    <trip id="188" depart="369.00" from="E7" to="-E5"/>
    <trip id="189" depart="370.00" from="E2" to="-E7"/>
    <trip id="190" depart="370.00" from="E1" to="E6"/>
    <trip id="191" depart="371.00" from="E1" to="E2"/>
    <trip id="192" depart="374.00" from="E2" to="E2"/>
    <trip id="193" depart="374.00" from="-E6" to="E3"/>
    <trip id="194" depart="375.00" from="E5" to="-E1"/>
    <trip id="195" depart="377.00" from="E7" to="-E5"/>
    <trip id="196" depart="377.00" from="E1" to="E2"/>
    <trip id="197" depart="380.00" from="E7" to="-E2"/>
    <trip id="198" depart="381.00" from="-E2" to="-E2"/>
    <trip id="199" depart="382.00" from="E5" to="E6"/>
    <trip id="200" depart="385.00" from="E5" to="E6"/>
    <trip id="201" depart="385.00" from="E2" to="E3"/>
    <trip id="202" depart="388.00" from="-E2" to="-E5"/>
    <trip id="203" depart="389.00" from="E7" to="-E5"/>
    <trip id="204" depart="389.00" from="-E3" to="-E2"/>
    <trip id="205" depart="392.00" from="-E3" to="E4"/>
    <trip id="206" depart="392.00" from="-E6" to="E3"/>
    <trip id="207" depart="394.00" from="-E4" to="E2"/>
    <trip id="208" depart="397.00" from="E1" to="E4"/>
    <trip id="209" depart="398.00" from="-E6" to="E4"/>
    <trip id="210" depart="399.00" from="-E4" to="-E1"/>
    <trip id="211" depart="400.00" from="E7" to="-E1"/>
    <trip id="212" depart="402.00" from="E1" to="E2"/>
    <trip id="213" depart="402.00" from="-E2" to="-E1"/>
    <trip id="214" depart="406.00" from="-E4" to="-E5"/>
    <trip id="215" depart="406.00" from="E5" to="-E7"/>
    <trip id="216" depart="407.00" from="-E3" to="-E1"/>
    <trip id="217" depart="408.00" from="E1" to="E3"/>
    <trip id="218" depart="409.00" from="E2" to="-E7"/>
    <trip id="219" depart="410.00" from="-E3" to="E4"/>
    <trip id="220" depart="416.00" from="E1" to="-E5"/>
    <trip id="221" depart="421.00" from="E7" to="E6"/>
    <trip id="222" depart="421.00" from="-E6" to="E4"/>
    <trip id="223" depart="424.00" from="-E3" to="-E2"/>
    <trip id="224" depart="425.00" from="E5" to="E3"/>
    <trip id="225" depart="426.00" from="E7" to="E6"/>
    <trip id="226" depart="430.00" from="-E3" to="-E5"/>
    <trip id="227" depart="431.00" from="-E4" to="-E7"/>
    <trip id="228" depart="435.00" from="-E2" to="E4"/>
    <trip id="229" depart="437.00" from="E5" to="E3"/>
    <trip id="230" depart="437.00" from="-E2" to="-E2"/>
    <trip id="231" depart="438.00" from="E1" to="E4"/>
    <trip id="232" depart="438.00" from="-E2" to="-E2"/>
    <trip id="233" depart="440.00" from="E5" to="E6"/>
    <trip id="234" depart="442.00" from="E7" to="-E5"/>
    <trip id="235" depart="443.00" from="-E3" to="-E2"/>
    <trip id="236" depart="448.00" from="E7" to="E3"/>
    <trip id="237" depart="449.00" from="-E6" to="E4"/>
    <trip id="238" depart="451.00" from="-E4" to="E6"/>
    <trip id="239" depart="452.00" from="E1" to="E4"/>
    <trip id="240" depart="453.00" from="-E2" to="-E5"/>
    <trip id="241" depart="454.00" from="-E3" to="-E7"/>
    <trip id="242" depart="457.00" from="-E4" to="-E1"/>
    <trip id="243" depart="458.00" from="E7" to="E6"/>
    <trip id="244" depart="460.00" from="-E6" to="-E2"/>
    <trip id="245" depart="464.00" from="-E6" to="-E7"/>
    <trip id="246" depart="465.00" from="-E2" to="-E5"/>
    <trip id="247" depart="476.00" from="-E4" to="E6"/>
    <trip id="248" depart="479.00" from="-E4" to="E6"/>
    <trip id="249" depart="483.00" from="-E6" to="E4"/>
    <trip id="250" depart="485.00" from="E1" to="E2"/>
    <trip id="251" depart="487.00" from="E2" to="E3"/>
    <trip id="252" depart="489.00" from="E5" to="E3"/>
    <trip id="253" depart="490.00" from="E7" to="E3"/>
    <trip id="254" depart="492.00" from="-E4" to="E2"/>
    <trip id="255" depart="495.00" from="E7" to="-E2"/>
    <trip id="256" depart="497.00" from="-E6" to="-E7"/>
    <trip id="257" depart="501.00" from="E5" to="E3"/>
    <trip id="258" depart="502.00" from="E7" to="-E2"/>
    <trip id="259" depart="507.00" from="-E6" to="-E2"/>
    <trip id="260" depart="514.00" from="E5" to="E4"/>
    <trip id="261" depart="516.00" from="-E2" to="E4"/>
    <trip id="262" depart="517.00" from="-E4" to="-E7"/>
    <trip id="263" depart="519.00" from="-E3" to="-E1"/>
    <trip id="264" depart="519.00" from="E2" to="E2"/>
    <trip id="265" depart="520.00" from="-E6" to="-E2"/>
    <trip id="266" depart="521.00" from="-E4" to="-E7"/>
    <trip id="267" depart="522.00" from="-E4" to="-E1"/>
    <trip id="268" depart="524.00" from="E5" to="E6"/>
    <trip id="269" depart="524.00" from="-E2" to="E4"/>
    <trip id="270" depart="533.00" from="-E6" to="E3"/>
    <trip id="271" depart="538.00" from="-E2" to="E4"/>
    <trip id="272" depart="539.00" from="E2" to="E2"/>
    <trip id="273" depart="539.00" from="E5" to="E4"/>
    <trip id="274" depart="541.00" from="E5" to="E2"/>
    <trip id="275" depart="545.00" from="-E3" to="-E2"/>
    <trip id="276" depart="545.00" from="-E2" to="-E5"/>
    <trip id="277" depart="548.00" from="E7" to="E4"/>
    <trip id="278" depart="549.00" from="E1" to="-E5"/>
    <trip id="279" depart="552.00" from="E5" to="E3"/>
    <trip id="280" depart="554.00" from="-E2" to="E4"/>
    <trip id="281" depart="554.00" from="E5" to="-E7"/>
    <trip id="282" depart="556.00" from="E7" to="-E2"/>
    <trip id="283" depart="556.00" from="-E6" to="-E5"/>
    <trip id="284" depart="561.00" from="E2" to="E3"/>
    <trip id="285" depart="563.00" from="-E6" to="-E2"/>
    <trip id="286" depart="564.00" from="-E4" to="E6"/>
    <trip id="287" depart="569.00" from="E5" to="E4"/>
    <trip id="288" depart="570.00" from="E7" to="-E2"/>
    <trip id="289" depart="572.00" from="E2" to="-E7"/>
    <trip id="290" depart="576.00" from="-E6" to="E3"/>
    <trip id="291" depart="577.00" from="-E2" to="E4"/>
    <trip id="292" depart="580.00" from="-E4" to="-E1"/>
    <trip id="293" depart="583.00" from="E7" to="E6"/>
    <trip id="294" depart="584.00" from="E5" to="E2"/>
    <trip id="295" depart="585.00" from="-E2" to="-E5"/>
    <trip id="296" depart="587.00" from="-E2" to="E4"/>
    <trip id="297" depart="588.00" from="E1" to="E2"/>
    <trip id="298" depart="588.00" from="E5" to="E2"/>
    <trip id="299" depart="589.00" from="E2" to="E3"/>
    <trip id="300" depart="589.00" from="E2" to="E3"/>
    <trip id="301" depart="594.00" from="-E3" to="E4"/>
    <trip id="302" depart="597.00" from="E2" to="E2"/>
    <trip id="303" depart="598.00" from="-E6" to="-E5"/>
    <trip id="304" depart="600.00" from="E1" to="E3"/>
    <trip id="305" depart="602.00" from="-E6" to="-E7"/>
    <trip id="306" depart="605.00" from="E7" to="E4"/>
    <trip id="307" depart="606.00" from="-E4" to="E2"/>
    <trip id="308" depart="607.00" from="E5" to="E6"/>
    <trip id="309" depart="610.00" from="-E6" to="-E5"/>
    <trip id="310" depart="610.00" from="E7" to="E4"/>
    <trip id="311" depart="613.00" from="E7" to="E3"/>
    <trip id="312" depart="614.00" from="E7" to="E6"/>
    <trip id="313" depart="616.00" from="-E2" to="-E2"/>
    <trip id="314" depart="618.00" from="E1" to="-E7"/>
    <trip id="315" depart="619.00" from="-E4" to="-E5"/>
    <trip id="316" depart="620.00" from="-E3" to="E4"/>
    <trip id="317" depart="624.00" from="-E3" to="-E7"/>
    <trip id="318" depart="626.00" from="-E4" to="-E5"/>
    <trip id="319" depart="627.00" from="-E3" to="-E5"/>
    <trip id="320" depart="628.00" from="-E6" to="-E7"/>
    <trip id="321" depart="629.00" from="-E6" to="E4"/>
    <trip id="322" depart="630.00" from="-E2" to="E4"/>
    <trip id="323" depart="631.00" from="E7" to="E4"/>
    <trip id="324" depart="633.00" from="-E6" to="-E2"/>
    <trip id="325" depart="633.00" from="-E3" to="-E5"/>
    <trip id="326" depart="635.00" from="E7" to="-E2"/>
    <trip id="327" depart="636.00" from="E1" to="E4"/>
    <trip id="328" depart="639.00" from="E2" to="E6"/>
    <trip id="329" depart="641.00" from="E7" to="E6"/>
    <trip id="330" depart="642.00" from="-E3" to="-E2"/>
    <trip id="331" depart="643.00" from="E7" to="-E2"/>
    <trip id="332" depart="645.00" from="E2" to="E6"/>
    <trip id="333" depart="652.00" from="E1" to="E6"/>
    <trip id="334" depart="660.00" from="E7" to="E4"/>
    <trip id="335" depart="665.00" from="E7" to="E3"/>
    <trip id="336" depart="670.00" from="E2" to="E6"/>
    <trip id="337" depart="671.00" from="E1" to="E6"/>
    <trip id="338" depart="675.00" from="E1" to="E6"/>
    <trip id="339" depart="677.00" from="E7" to="-E1"/>
    <trip id="340" depart="677.00" from="-E2" to="-E5"/>
    <trip id="341" depart="678.00" from="-E6" to="E4"/>
    <trip id="342" depart="678.00" from="-E2" to="E4"/>
    <trip id="343" depart="680.00" from="-E3" to="-E7"/>
    <trip id="344" depart="684.00" from="E1" to="E2"/>
    <trip id="345" depart="685.00" from="E7" to="-E2"/>
    <trip id="346" depart="686.00" from="-E2" to="-E2"/>
    <trip id="347" depart="690.00" from="E2" to="E3"/>
    <trip id="348" depart="691.00" from="-E4" to="-E7"/>
    <trip id="349" depart="693.00" from="-E2" to="-E2"/>
    <trip id="350" depart="695.00" from="-E4" to="-E1"/>
    <trip id="351" depart="699.00" from="-E4" to="E2"/>
    <trip id="352" depart="700.00" from="E7" to="E3"/>
    <trip id="353" depart="701.00" from="-E6" to="-E7"/>
    <trip id="354" depart="702.00" from="E1" to="E4"/>
    <trip id="355" depart="703.00" from="-E4" to="E2"/>
    <trip id="356" depart="709.00" from="E7" to="-E5"/>
    <trip id="357" depart="712.00" from="E2" to="E6"/>
    <trip id="358" depart="715.00" from="-E3" to="E4"/>
    <trip id="359" depart="715.00" from="-E4" to="E2"/>
    <trip id="360" depart="716.00" from="E5" to="E6"/>
    <trip id="361" depart="720.00" from="-E3" to="E4"/>
    <trip id="362" depart="722.00" from="-E2" to="-E5"/>
    <trip id="363" depart="722.00" from="E5" to="E2"/>
    <trip id="364" depart="723.00" from="E7" to="E3"/>
    <trip id="365" depart="724.00" from="E1" to="E6"/>
    <trip id="366" depart="727.00" from="E5" to="E4"/>
    <trip id="367" depart="729.00" from="E7" to="E3"/>
    <trip id="368" depart="733.00" from="E1" to="E3"/>
    <trip id="369" depart="737.00" from="E5" to="E6"/>
    <trip id="370" depart="738.00" from="E2" to="E2"/>
    <trip id="371" depart="739.00" from="-E2" to="-E2"/>
    <trip id="372" depart="750.00" from="-E4" to="E3"/>
    <trip id="373" depart="752.00" from="E5" to="-E7"/>
    <trip id="374" depart="753.00" from="E1" to="E3"/>
    <trip id="375" depart="756.00" from="-E3" to="-E5"/>
    <trip id="376" depart="757.00" from="E2" to="E3"/>
    <trip id="377" depart="758.00" from="E7" to="E6"/>
    <trip id="378" depart="761.00" from="-E4" to="E3"/>
    <trip id="379" depart="763.00" from="E7" to="-E5"/>
    <trip id="380" depart="764.00" from="E7" to="E3"/>
    <trip id="381" depart="764.00" from="E2" to="-E7"/>
    <trip id="382" depart="765.00" from="E2" to="E3"/>
    <trip id="383" depart="766.00" from="E5" to="-E1"/>
    <trip id="384" depart="769.00" from="-E2" to="-E1"/>
    <trip id="385" depart="774.00" from="-E3" to="-E5"/>
    <trip id="386" depart="774.00" from="-E6" to="-E2"/>
    <trip id="387" depart="776.00" from="E2" to="E6"/>
    <trip id="388" depart="778.00" from="-E3" to="-E1"/>
    <trip id="389" depart="788.00" from="E5" to="-E1"/>
    <trip id="390" depart="792.00" from="-E4" to="-E7"/>
    <trip id="391" depart="792.00" from="-E6" to="-E5"/>
    <trip id="392" depart="793.00" from="E7" to="-E1"/>
    <trip id="393" depart="795.00" from="-E4" to="-E5"/>
    <trip id="394" depart="796.00" from="-E6" to="-E2"/>
    <trip id="395" depart="802.00" from="-E6" to="E4"/>
    <trip id="396" depart="802.00" from="-E6" to="E3"/>
    <trip id="397" depart="804.00" from="E2" to="E6"/>
    <trip id="398" depart="806.00" from="-E3" to="-E7"/>
    <trip id="399" depart="807.00" from="-E3" to="-E2"/>
    <trip id="400" depart="807.00" from="E7" to="E4"/>
    <trip id="401" depart="808.00" from="E1" to="E3"/>
    <trip id="402" depart="811.00" from="-E6" to="E3"/>
    <trip id="403" depart="817.00" from="E1" to="-E5"/>
    <trip id="404" depart="818.00" from="-E4" to="-E7"/>
    <trip id="405" depart="820.00" from="E5" to="-E1"/>
    <trip id="406" depart="822.00" from="E5" to="E4"/>
    <trip id="407" depart="824.00" from="-E4" to="E2"/>
    <trip id="408" depart="825.00" from="E1" to="-E7"/>
    <trip id="409" depart="826.00" from="E1" to="-E5"/>
    <trip id="410" depart="827.00" from="-E3" to="-E5"/>
    <trip id="411" depart="827.00" from="-E3" to="-E1"/>
    <trip id="412" depart="828.00" from="-E3" to="-E2"/>
    <trip id="413" depart="831.00" from="E5" to="E2"/>
    <trip id="414" depart="832.00" from="E2" to="-E7"/>
    <trip id="415" depart="832.00" from="E7" to="-E2"/>
    <trip id="416" depart="835.00" from="E1" to="E3"/>
    <trip id="417" depart="836.00" from="-E6" to="-E5"/>
    <trip id="418" depart="837.00" from="-E2" to="E4"/>
    <trip id="419" depart="839.00" from="-E4" to="-E7"/>
    <trip id="420" depart="841.00" from="E2" to="E2"/>
    <trip id="421" depart="842.00" from="E7" to="-E1"/>
    <trip id="422" depart="845.00" from="E5" to="-E7"/>
    <trip id="423" depart="847.00" from="-E6" to="E4"/>
    <trip id="424" depart="848.00" from="E2" to="E6"/>
    <trip id="425" depart="850.00" from="-E3" to="E4"/>
    <trip id="426" depart="852.00" from="-E3" to="E4"/>
    <trip id="427" depart="853.00" from="-E3" to="-E2"/>
    <trip id="428" depart="857.00" from="E2" to="E6"/>
    <trip id="429" depart="862.00" from="E1" to="E4"/>
    <trip id="430" depart="862.00" from="E1" to="-E5"/>
    <trip id="431" depart="863.00" from="-E2" to="-E1"/>
    <trip id="432" depart="864.00" from="E1" to="-E7"/>
    <trip id="433" depart="865.00" from="E5" to="E3"/>
    <trip id="434" depart="866.00" from="E1" to="-E7"/>
    <trip id="435" depart="867.00" from="E7" to="E3"/>
    <trip id="436" depart="868.00" from="-E6" to="-E1"/>
    <trip id="437" depart="868.00" from="-E3" to="E6"/>
    <trip id="438" depart="870.00" from="E7" to="-E5"/>
    <trip id="439" depart="872.00" from="-E3" to="-E1"/>
    <trip id="440" depart="874.00" from="-E3" to="-E5"/>
    <trip id="441" depart="875.00" from="-E3" to="E4"/>
    <trip id="442" depart="876.00" from="-E3" to="E4"/>
    <trip id="443" depart="878.00" from="E2" to="E3"/>
    <trip id="444" depart="878.00" from="E5" to="E2"/>
    <trip id="445" depart="888.00" from="-E6" to="-E1"/>
    <trip id="446" depart="889.00" from="E5" to="E2"/>
    <trip id="447" depart="892.00" from="E5" to="E2"/>
    <trip id="448" depart="894.00" from="-E6" to="-E2"/>
    <trip id="449" depart="895.00" from="-E3" to="-E7"/>
    <trip id="450" depart="895.00" from="-E3" to="-E7"/>
    <trip id="451" depart="899.00" from="E7" to="-E1"/>
    <trip id="452" depart="902.00" from="-E3" to="E6"/>
    <trip id="453" depart="903.00" from="-E3" to="-E1"/>
    <trip id="454" depart="904.00" from="E1" to="E2"/>
    <trip id="455" depart="904.00" from="-E3" to="-E1"/>
    <trip id="456" depart="905.00" from="-E2" to="-E2"/>
    <trip id="457" depart="908.00" from="-E2" to="-E5"/>
    <trip id="458" depart="909.00" from="-E2" to="-E5"/>
    <trip id="459" depart="910.00" from="-E2" to="-E1"/>
    <trip id="460" depart="912.00" from="-E4" to="E6"/>
    <trip id="461" depart="912.00" from="-E3" to="-E2"/>
    <trip id="462" depart="913.00" from="E7" to="E3"/>
    <trip id="463" depart="914.00" from="-E2" to="-E5"/>
    <trip id="464" depart="914.00" from="-E6" to="-E7"/>
    <trip id="465" depart="917.00" from="E7" to="-E2"/>
    <trip id="466" depart="917.00" from="E5" to="-E7"/>
    <trip id="467" depart="921.00" from="-E2" to="E4"/>
    <trip id="468" depart="922.00" from="E1" to="E3"/>
    <trip id="469" depart="923.00" from="-E3" to="E4"/>
    <trip id="470" depart="924.00" from="-E3" to="-E2"/>
    <trip id="471" depart="926.00" from="-E3" to="-E1"/>
    <trip id="472" depart="926.00" from="-E6" to="E4"/>
    <trip id="473" depart="927.00" from="-E4" to="E3"/>
    <trip id="474" depart="928.00" from="E5" to="-E1"/>
    <trip id="475" depart="929.00" from="E1" to="E3"/>
    <trip id="476" depart="932.00" from="E5" to="E4"/>
    <trip id="477" depart="938.00" from="E7" to="E6"/>
    <trip id="478" depart="941.00" from="-E6" to="-E5"/>
    <trip id="479" depart="947.00" from="-E2" to="-E5"/>
    <trip id="480" depart="948.00" from="E2" to="-E7"/>
    <trip id="481" depart="959.00" from="E5" to="E6"/>
    <trip id="482" depart="960.00" from="-E4" to="E3"/>
    <trip id="483" depart="962.00" from="-E2" to="-E1"/>
    <trip id="484" depart="966.00" from="-E2" to="-E5"/>
    <trip id="485" depart="974.00" from="-E3" to="-E7"/>
    <trip id="486" depart="977.00" from="E5" to="-E1"/>
    <trip id="487" depart="978.00" from="E5" to="E4"/>
    <trip id="488" depart="980.00" from="-E6" to="E4"/>
    <trip id="489" depart="983.00" from="E7" to="E4"/>
    <trip id="490" depart="986.00" from="-E4" to="-E1"/>
    <trip id="491" depart="989.00" from="-E2" to="E4"/>
    <trip id="492" depart="989.00" from="-E3" to="-E1"/>
    <trip id="493" depart="990.00" from="E2" to="E3"/>
    <trip id="494" depart="991.00" from="-E3" to="E6"/>
    <trip id="495" depart="991.00" from="-E3" to="-E5"/>
    <trip id="496" depart="994.00" from="-E3" to="-E5"/>
    <trip id="497" depart="996.00" from="E2" to="-E7"/>
    <trip id="498" depart="1000.00" from="-E2" to="E4"/>
    <trip id="499" depart="1000.00" from="E2" to="E3"/>
    <trip id="500" depart="1008.00" from="E1" to="E4"/>
    <trip id="501" depart="1013.00" from="E7" to="-E2"/>
    <trip id="502" depart="1014.00" from="E5" to="-E1"/>
    <trip id="503" depart="1016.00" from="-E2" to="-E5"/>
    <trip id="504" depart="1018.00" from="E2" to="E2"/>
    <trip id="505" depart="1020.00" from="E2" to="-E7"/>
    <trip id="506" depart="1022.00" from="-E3" to="-E7"/>
    <trip id="507" depart="1023.00" from="E5" to="E6"/>
    <trip id="508" depart="1026.00" from="E5" to="-E1"/>
    <trip id="509" depart="1026.00" from="-E2" to="-E5"/>
    <trip id="510" depart="1030.00" from="-E4" to="E2"/>
    <trip id="511" depart="1032.00" from="E5" to="-E1"/>
    <trip id="512" depart="1033.00" from="E5" to="E3"/>
    <trip id="513" depart="1034.00" from="-E2" to="E4"/>
    <trip id="514" depart="1038.00" from="E2" to="E2"/>
    <trip id="515" depart="1038.00" from="E5" to="-E7"/>
    <trip id="516" depart="1045.00" from="-E4" to="-E7"/>
    <trip id="517" depart="1046.00" from="-E6" to="-E1"/>
    <trip id="518" depart="1047.00" from="E1" to="E3"/>
    <trip id="519" depart="1048.00" from="-E2" to="E4"/>
    <trip id="520" depart="1048.00" from="E2" to="-E7"/>
    <trip id="521" depart="1049.00" from="-E4" to="E6"/>
    <trip id="522" depart="1050.00" from="-E2" to="E4"/>
    <trip id="523" depart="1053.00" from="E1" to="-E5"/>
    <trip id="524" depart="1060.00" from="-E3" to="-E5"/>
    <trip id="525" depart="1061.00" from="E5" to="E3"/>
    <trip id="526" depart="1062.00" from="E1" to="-E7"/>
    <trip id="527" depart="1071.00" from="-E4" to="-E5"/>